/*--------------------------------*- C++ -*----------------------------------*\
| =========                 |                                                 |
| \\      /  F ield         | OpenFOAM: The Open Source CFD Toolbox           |
|  \\    /   O peration     | Version:  4.x                                   |
|   \\  /    A nd           | Web:      www.OpenFOAM.org                      |
|    \\/     M anipulation  |                                                 |
\*---------------------------------------------------------------------------*/
FoamFile
{
    version     2.0;
    format      ascii;
    class       volScalarField;
    object      ScQGD;
}
// * * * * * * * * * * * * * * * * * * * * * * * * * * * * * * * * * * * * * //

dimensions      [0 0 0 0 0 0 0];

internalField   uniform 0.125;

boundaryField
{
    "(inlet|outlet)"
    {
        type            zeroGradient;
    }
    wing
    {
        type        fixedValue;
        value       uniform 0;
    }
    "(symFront|symBack)"
    {
        type            empty;
    }
    topAndBottom
    {
        type slip;
    }
}

// ************************************************************************* //

